@<TRIPOS>MOLECULE
/data/masters/datasets/disco/data/ANDR/PDB_Structures/2YLQ_LIG.pdb
 21 24 0 0 0
SMALL
GASTEIGER

@<TRIPOS>ATOM
      1  C1        26.7550    5.1470    4.6920 C.3   1921  LIG1921     0.0118
      2  C2        25.9460    6.3960    5.0400 C.3   1921  LIG1921     0.0694
      3  C3        24.5570    6.2270    4.4640 C.2   1921  LIG1921     0.1725
      4  O3        23.9390    7.1960    4.0120 O.2   1921  LIG1921    -0.2914
      5  C4        23.9520    4.8760    4.4610 C.2   1921  LIG1921     0.0289
      6  C5        24.6490    3.7810    4.8540 C.2   1921  LIG1921    -0.0420
      7  C6        23.9340    2.4410    4.8660 C.3   1921  LIG1921     0.0221
      8  C7        24.7830    1.4290    4.1320 C.3   1921  LIG1921     0.0044
      9  C8        26.1310    1.2950    4.7780 C.3   1921  LIG1921     0.0007
     10  C9        26.8550    2.6530    4.6630 C.3   1921  LIG1921     0.0035
     11  C10       26.1020    3.8550    5.2550 C.3   1921  LIG1921     0.0157
     12  C11       28.3150    2.6110    5.1760 C.3   1921  LIG1921     0.0004
     13  C12       29.1300    1.4510    4.5540 C.3   1921  LIG1921     0.0025
     14  C13       28.3980    0.1180    4.6560 C.3   1921  LIG1921     0.0282
     15  C14       27.0020    0.2580    4.0560 C.3   1921  LIG1921     0.0025
     16  C15       26.5040   -1.1710    3.8060 C.3   1921  LIG1921     0.0027
     17  C16       27.7840   -1.9940    3.6080 C.3   1921  LIG1921     0.0329
     18  C17       28.9350   -1.0030    3.7570 C.3   1921  LIG1921     0.1519
     19  O17       30.1170   -1.6600    4.2190 O.3   1921  LIG1921    -0.2232
     20  C18       28.3040   -0.2720    6.1350 C.3   1921  LIG1921     0.0025
     21  C19       26.1680    3.8660    6.7880 C.3   1921  LIG1921     0.0041
@<TRIPOS>BOND
     1     1     2    1
     2     1    11    1
     3     2     3    1
     4     3     4    2
     5     3     5    1
     6     5     6    2
     7     6     7    1
     8     6    11    1
     9     7     8    1
    10     8     9    1
    11     9    10    1
    12     9    15    1
    13    10    11    1
    14    10    12    1
    15    11    21    1
    16    12    13    1
    17    13    14    1
    18    14    15    1
    19    14    18    1
    20    14    20    1
    21    15    16    1
    22    16    17    1
    23    17    18    1
    24    18    19    1
