@<TRIPOS>MOLECULE
/data/masters/datasets/disco/data/CAH2/PDB_Structures/5JES_LIG.pdb
 13 14 0 0 0
SMALL
GASTEIGER

@<TRIPOS>ATOM
      1  N         -5.4420   -0.3780   16.2150 N.3   302  LIG302      0.0412
      2  O1        -7.4460    0.9410   16.7910 O.2   302  LIG302     -0.1483
      3  S1        -6.2900    3.8370   16.4220 S.2   302  LIG302     -0.0465
      4  C2        -5.4250    2.3340   16.4640 C.ar  302  LIG302      0.2367
      5  O2        -5.5390    0.9340   18.3710 O.2   302  LIG302     -0.1483
      6  N3        -4.1140    2.4790   16.1460 N.ar  302  LIG302     -0.2199
      7  C4        -2.5250    4.2420   15.3330 C.ar  302  LIG302      0.0197
      8  C5        -2.4250    5.5890   15.0050 C.ar  302  LIG302      0.0016
      9  C6        -3.5240    6.4410   15.1150 C.ar  302  LIG302      0.0006
     10  C7        -4.7720    5.9820   15.5490 C.ar  302  LIG302      0.0081
     11  C8        -4.9160    4.6420   15.8770 C.ar  302  LIG302      0.0498
     12  C9        -3.7510    3.7360   15.7610 C.ar  302  LIG302      0.0893
     13  S         -6.0280    0.8940   17.0230 S.O2  302  LIG302      0.1161
@<TRIPOS>BOND
     1     1    13    1
     2     2    13    2
     3     3     4   ar
     4     3    11   ar
     5     4     6   ar
     6     4    13    1
     7     5    13    2
     8     6    12   ar
     9     7     8   ar
    10     7    12   ar
    11     8     9   ar
    12     9    10   ar
    13    10    11   ar
    14    11    12   ar
