/data/masters/datasets/disco/data/CAH2/PDB_Structures/5JES_LIG.pdb
 OpenBabel03102204063D

 13 14  0  0  0  0  0  0  0  0999 V2000
   -5.4420   -0.3780   16.2150 N   0  0  0  0  0  0  0  0  0  0  0  0
   -7.4460    0.9410   16.7910 O   0  0  0  0  0  0  0  0  0  0  0  0
   -6.2900    3.8370   16.4220 S   0  0  0  0  0  0  0  0  0  0  0  0
   -5.4250    2.3340   16.4640 C   0  0  0  0  0  0  0  0  0  0  0  0
   -5.5390    0.9340   18.3710 O   0  0  0  0  0  0  0  0  0  0  0  0
   -4.1140    2.4790   16.1460 N   0  0  0  0  0  0  0  0  0  0  0  0
   -2.5250    4.2420   15.3330 C   0  0  0  0  0  0  0  0  0  0  0  0
   -2.4250    5.5890   15.0050 C   0  0  0  0  0  0  0  0  0  0  0  0
   -3.5240    6.4410   15.1150 C   0  0  0  0  0  0  0  0  0  0  0  0
   -4.7720    5.9820   15.5490 C   0  0  0  0  0  0  0  0  0  0  0  0
   -4.9160    4.6420   15.8770 C   0  0  0  0  0  0  0  0  0  0  0  0
   -3.7510    3.7360   15.7610 C   0  0  0  0  0  0  0  0  0  0  0  0
   -6.0280    0.8940   17.0230 S   0  0  0  0  0  0  0  0  0  0  0  0
  1 13  1  0  0  0  0
  2 13  2  0  0  0  0
  3  4  1  0  0  0  0
  3 11  1  0  0  0  0
  4  6  2  0  0  0  0
  4 13  1  0  0  0  0
  5 13  2  0  0  0  0
  6 12  1  0  0  0  0
  7  8  2  0  0  0  0
  7 12  1  0  0  0  0
  8  9  1  0  0  0  0
  9 10  2  0  0  0  0
 10 11  1  0  0  0  0
 11 12  2  0  0  0  0
M  END
$$$$
