@<TRIPOS>MOLECULE
/data/masters/datasets/disco/data/PYGM/PDB_Structures/1GFZ_LIG.pdb
 14 15 0 0 0
SMALL
GASTEIGER

@<TRIPOS>ATOM
      1  N1        38.9680   37.0340   29.9390 N.ar  940  LIG940     -0.2454
      2  C2        38.4760   35.8800   29.0470 C.ar  940  LIG940      0.3350
      3  N3        37.6230   35.0620   29.6830 N.ar  940  LIG940     -0.2628
      4  C4        37.2050   35.2010   31.0330 C.ar  940  LIG940      0.1696
      5  C5        37.6330   36.2390   31.8170 C.ar  940  LIG940      0.1528
      6  C6        38.5910   37.2050   31.2990 C.ar  940  LIG940      0.2832
      7  N7        37.0400   36.0580   33.0690 N.ar  940  LIG940     -0.3021
      8  C8        36.2830   34.9590   32.8970 C.ar  940  LIG940      0.1802
      9  N9        36.3630   34.4170   31.6700 N.ar  940  LIG940     -0.2063
     10  C10       39.9360   37.9920   29.2830 C.3   940  LIG940      0.1383
     11  O11       38.8750   35.8220   27.9150 O.2   940  LIG940     -0.2461
     12  C12       37.0700   33.9020   28.9380 C.3   940  LIG940      0.1366
     13  O13       39.0370   38.1980   31.9810 O.2   940  LIG940     -0.2652
     14  C14       37.1840   36.9210   34.2790 C.3   940  LIG940      0.1322
@<TRIPOS>BOND
     1     1     2   ar
     2     1     6   ar
     3     1    10    1
     4     2     3   ar
     5     2    11    2
     6     3     4   ar
     7     3    12    1
     8     4     5   ar
     9     4     9   ar
    10     5     6   ar
    11     5     7   ar
    12     6    13    2
    13     7     8   ar
    14     7    14    1
    15     8     9   ar
