/data/masters/datasets/disco/data/PYGM/PDB_Structures/1GFZ_LIG.pdb
 OpenBabel03102204063D

 14 15  0  0  0  0  0  0  0  0999 V2000
   38.9680   37.0340   29.9390 N   0  0  0  0  0  0  0  0  0  0  0  0
   38.4760   35.8800   29.0470 C   0  0  0  0  0  0  0  0  0  0  0  0
   37.6230   35.0620   29.6830 N   0  0  0  0  0  0  0  0  0  0  0  0
   37.2050   35.2010   31.0330 C   0  0  0  0  0  0  0  0  0  0  0  0
   37.6330   36.2390   31.8170 C   0  0  0  0  0  0  0  0  0  0  0  0
   38.5910   37.2050   31.2990 C   0  0  0  0  0  0  0  0  0  0  0  0
   37.0400   36.0580   33.0690 N   0  0  0  0  0  0  0  0  0  0  0  0
   36.2830   34.9590   32.8970 C   0  0  0  0  0  0  0  0  0  0  0  0
   36.3630   34.4170   31.6700 N   0  0  0  0  0  0  0  0  0  0  0  0
   39.9360   37.9920   29.2830 C   0  0  0  0  0  0  0  0  0  0  0  0
   38.8750   35.8220   27.9150 O   0  0  0  0  0  0  0  0  0  0  0  0
   37.0700   33.9020   28.9380 C   0  0  0  0  0  0  0  0  0  0  0  0
   39.0370   38.1980   31.9810 O   0  0  0  0  0  0  0  0  0  0  0  0
   37.1840   36.9210   34.2790 C   0  0  0  0  0  0  0  0  0  0  0  0
  1  2  1  0  0  0  0
  1  6  1  0  0  0  0
  1 10  1  0  0  0  0
  2  3  1  0  0  0  0
  2 11  2  0  0  0  0
  3  4  1  0  0  0  0
  3 12  1  0  0  0  0
  4  5  2  0  0  0  0
  4  9  1  0  0  0  0
  5  6  1  0  0  0  0
  5  7  1  0  0  0  0
  6 13  2  0  0  0  0
  7  8  1  0  0  0  0
  7 14  1  0  0  0  0
  8  9  2  0  0  0  0
M  END
$$$$
